Version 4.1
SHEET 1 988 680
WIRE 800 112 720 112
WIRE 304 128 224 128
WIRE 560 144 544 144
WIRE 800 160 800 112
WIRE 880 160 800 160
WIRE 304 176 304 128
WIRE 336 176 304 176
WIRE 352 176 336 176
WIRE 544 176 544 144
WIRE 624 176 544 176
WIRE 672 176 624 176
WIRE 176 192 16 192
WIRE 336 192 336 176
WIRE 624 192 624 176
WIRE 800 208 800 160
WIRE 800 208 720 208
WIRE 16 224 16 192
WIRE 304 224 304 176
WIRE 304 224 224 224
WIRE 880 256 880 240
WIRE 16 320 16 304
FLAG 16 320 0
FLAG 352 176 VOUT
IOPIN 352 176 Out
FLAG 336 256 0
FLAG 880 256 0
FLAG 560 144 VOUT2
IOPIN 560 144 Out
FLAG 624 256 0
SYMBOL njf 176 128 R0
SYMATTR InstName J1
SYMBOL cap 320 192 R0
SYMATTR InstName C1
SYMATTR Value 1e-6
SYMBOL voltage 16 208 R0
WINDOW 123 0 0 Left 0
WINDOW 39 0 0 Left 0
SYMATTR InstName V1
SYMATTR Value 3.3
SYMBOL njf 672 112 R0
SYMATTR InstName J2
SYMBOL cap 608 192 R0
SYMATTR InstName C2
SYMATTR Value 1µF
SYMBOL voltage 880 144 R0
WINDOW 123 0 0 Left 0
WINDOW 39 0 0 Left 0
SYMATTR InstName V2
SYMATTR Value 3.3
TEXT 120 80 Left 2 !.tran 0.1 startup
